2
Properties=species:S:1:pos:R:3:momenta:R:3:forces:R:3:energies:R:1 energy=0.26277710505833607 free_energy=0.26277710505833607 pbc="F F F"
N        0.00000000       0.00000000       0.05096670       0.00000000       0.00000000       0.00000000      -0.00000000      -0.00000000       0.00145257       0.13138855
N       -0.00000000      -0.00000000       1.04903330       0.00000000       0.00000000       0.00000000       0.00000000       0.00000000      -0.00145257       0.13138855
